# 最小双分子 mol2 示例（仅用于校验 systems.yaml 的多分子拆分配置，
# 实际 MD 请替换为真实配体文件）
@<TRIPOS>MOLECULE
FDME
    5     4     1     0     0
SMALL
NO_CHARGES

@<TRIPOS>ATOM
      1 C1          0.0000    0.0000    0.0000 C.3    1  FDME       0.0000
      2 O1          0.1430    0.0000    0.0000 O.3    1  FDME       0.0000
      3 C2          0.2860    0.0000    0.0000 C.3    1  FDME       0.0000
      4 O2          0.4290    0.0000    0.0000 O.3    1  FDME       0.0000
      5 C3          0.5720    0.0000    0.0000 C.3    1  FDME       0.0000
@<TRIPOS>BOND
     1     1     2  1
     2     2     3  1
     3     3     4  1
     4     4     5  1

@<TRIPOS>MOLECULE
BDO
    4     3     1     0     0
SMALL
NO_CHARGES

@<TRIPOS>ATOM
      1 C1          0.0000    0.0000    0.0000 C.3    1  BDO        0.0000
      2 C2          0.1430    0.0000    0.0000 C.3    1  BDO        0.0000
      3 O1          0.2860    0.0000    0.0000 O.3    1  BDO        0.0000
      4 O2          0.4290    0.0000    0.0000 O.3    1  BDO        0.0000
@<TRIPOS>BOND
     1     1     2  1
     2     2     3  1
     3     2     4  1
